2
name=" h2 " energy_kcal_mol=109.493
H        0.000000    0.000000    0.370946 
H        0.000000    0.000000   -0.370946 
4
name=" alh3 " energy_kcal_mol=213.169
Al       0.000000    0.000000    0.000000 
H        0.000000    1.580500    0.000000 
H        1.368753   -0.790250    0.000000 
H       -1.368753   -0.790250    0.000000 
2
name=" alh " energy_kcal_mol=73.570
Al       0.000000    0.000000    0.117855 
H        0.000000    0.000000   -1.532116 
5
name=" sih4 " energy_kcal_mol=324.945
H        0.853686    0.853686    0.853686 
Si       0.000000    0.000000    0.000000 
H       -0.853686   -0.853686    0.853686 
H       -0.853686    0.853686   -0.853686 
H        0.853686   -0.853686   -0.853686 
4
name=" bh3 " energy_kcal_mol=281.287
B        0.000000    0.000000    0.000000 
H        0.000000    1.189900    0.000000 
H        1.030484   -0.594950    0.000000 
H       -1.030484   -0.594950    0.000000 
2
name=" bh " energy_kcal_mol=84.995
B        0.000000    0.000000    0.205543 
H        0.000000    0.000000   -1.027713 
3
name=" ch2-trip " energy_kcal_mol=190.745
C        0.000000    0.000000    0.106011 
H        0.000000    0.990291   -0.318032 
H        0.000000   -0.990291   -0.318032 
2
name=" sih " energy_kcal_mol=73.921
H        0.000000    0.000000   -1.420666 
Si       0.000000    0.000000    0.101476 
8
name=" si2h6 " energy_kcal_mol=535.885
Si       0.000000    1.170884    0.000000 
H       -1.389950    1.685125    0.000000 
H        0.695457    1.683694    1.204045 
H        0.695457    1.683694   -1.204045 
Si       0.000000   -1.170884    0.000000 
H        1.389950   -1.685125    0.000000 
H       -0.695457   -1.683694    1.204045 
H       -0.695457   -1.683694   -1.204045 
4
name=" ch3 " energy_kcal_mol=307.870
C        0.000000    0.000000    0.000000 
H        0.000000    1.077700    0.000000 
H        0.933316   -0.538850    0.000000 
H       -0.933316   -0.538850    0.000000 
5
name=" ch4 " energy_kcal_mol=420.420
H        0.628099    0.628099    0.628099 
C        0.000000    0.000000    0.000000 
H       -0.628099   -0.628099    0.628099 
H       -0.628099    0.628099   -0.628099 
H        0.628099   -0.628099   -0.628099 
8
name=" b2h6 " energy_kcal_mol=607.023
B       -0.878894    0.000000    0.000000 
B        0.878894    0.000000    0.000000 
H        0.000000    0.000000    0.975221 
H        0.000000    0.000000   -0.975221 
H       -1.452345    1.039659    0.000000 
H       -1.452345   -1.039659    0.000000 
H        1.452345   -1.039659    0.000000 
H        1.452345    1.039659    0.000000 
5
name=" sih3f " energy_kcal_mol=382.753
F        0.000000    0.000000   -1.099839 
Si       0.000000    0.000000    0.495525 
H        0.000000    1.390293    0.987068 
H       -1.204029   -0.695146    0.987068 
H        1.204029   -0.695146    0.987068 
4
name=" ph3 " energy_kcal_mol=242.267
P        0.000000    0.000000    0.127408 
H        0.000000    1.190343   -0.637041 
H       -1.030867   -0.595172   -0.637041 
H        1.030867   -0.595172   -0.637041 
8
name=" c2h6 " energy_kcal_mol=713.080
C        0.000000    0.000000    0.763258 
C        0.000000    0.000000   -0.763258 
H        0.000000    1.016928    1.157843 
H       -0.880686   -0.508464    1.157843 
H        0.880686   -0.508464    1.157843 
H        0.000000   -1.016928   -1.157843 
H       -0.880686    0.508464   -1.157843 
H        0.880686    0.508464   -1.157843 
11
name=" propane " energy_kcal_mol=1007.909
C        0.000000    1.265790   -0.260971 
H       -0.881481    1.298774   -0.905267 
H        0.881481    1.298774   -0.905267 
H        0.000000    2.166499    0.354619 
C        0.000000    0.000000    0.591729 
H        0.875492    0.000000    1.246553 
H       -0.875492    0.000000    1.246553 
C        0.000000   -1.265790   -0.260971 
H        0.881481   -1.298774   -0.905267 
H        0.000000   -2.166499    0.354619 
H       -0.881481   -1.298774   -0.905267 
3
name=" ch2-sing " energy_kcal_mol=181.456
C        0.000000    0.000000    0.174618 
H        0.000000    0.860944   -0.523853 
H        0.000000   -0.860944   -0.523853 
2
name=" ch " energy_kcal_mol=84.221
C        0.000000    0.000000    0.160038 
H        0.000000    0.000000   -0.960230 
3
name=" h2s " energy_kcal_mol=183.913
S        0.000000    0.000000    0.102943 
H        0.000000    0.964958   -0.823542 
H        0.000000   -0.964958   -0.823542 
2
name=" hs " energy_kcal_mol=87.731
S        0.000000    0.000000    0.078975 
H        0.000000    0.000000   -1.263598 
8
name=" c2h5f " energy_kcal_mol=721.502
F        1.223684   -0.102770    0.000000 
C        0.000000    0.558143    0.000000 
C       -1.122802   -0.450951    0.000000 
H       -2.084290    0.065246    0.000000 
H       -0.028060    1.191265    0.887974 
H       -0.028060    1.191265   -0.887974 
H       -1.067967   -1.082997    0.885745 
H       -1.067967   -1.082997   -0.885745 
7
name=" ch3nh2 " energy_kcal_mol=582.301
C        0.051432    0.705304    0.000000 
N        0.051432   -0.759906    0.000000 
H       -0.942095    1.167319    0.000000 
H        0.590310    1.061677    0.877640 
H        0.590310    1.061677   -0.877640 
H       -0.453572   -1.101576   -0.807607 
H       -0.453572   -1.101576    0.807607 
5
name=" ch3f " energy_kcal_mol=422.959
F        0.000000    0.000000    0.750386 
C        0.000000    0.000000   -0.629363 
H        0.000000    1.026909   -0.992430 
H        0.889329   -0.513454   -0.992430 
H       -0.889329   -0.513454   -0.992430 
9
name=" propene " energy_kcal_mol=861.578
C       -1.138173   -0.495907    0.000000 
C        0.000000    0.480324    0.000000 
C        1.290247    0.136199    0.000000 
H        1.592741   -0.904724    0.000000 
H        2.073514    0.882538    0.000000 
H       -0.261709    1.534391    0.000000 
H       -0.771912   -1.522970    0.000000 
H       -1.772538   -0.356465    0.878203 
H       -1.772538   -0.356465   -0.878203 
4
name=" nh3 " energy_kcal_mol=298.018
N        0.000000    0.000000    0.116671 
H        0.000000    0.934724   -0.272232 
H        0.809495   -0.467362   -0.272232 
H       -0.809495   -0.467362   -0.272232 
9
name=" ethanol " energy_kcal_mol=811.241
H       -1.941536    0.377106    0.000000 
O       -1.192952   -0.221186    0.000000 
C        0.000000    0.556697    0.000000 
C        1.170149   -0.402575    0.000000 
H        0.039888    1.200050    0.885595 
H        0.039888    1.200050   -0.885595 
H        2.113118    0.145753    0.000000 
H        1.135681   -1.039101   -0.884130 
H        1.135681   -1.039101    0.884130 
6
name=" ch3nh " energy_kcal_mol=474.629
C        0.059643   -0.627621    0.000000 
H       -0.466089   -1.023321    0.878215 
H        1.079741   -1.006662    0.000000 
H       -0.466089   -1.023321   -0.878215 
N        0.059643    0.816421    0.000000 
H       -0.922919    1.104082    0.000000 
6
name=" c2h4 " energy_kcal_mol=564.095
C        0.000000    0.000000    0.667100 
C        0.000000    0.000000   -0.667100 
H        0.000000    0.923404   -1.231634 
H        0.000000   -0.923404   -1.231634 
H        0.000000    0.923404    1.231634 
H        0.000000   -0.923404    1.231634 
6
name=" methanol " energy_kcal_mol=513.501
C       -0.046573    0.662925    0.000000 
H       -1.087867    0.977315    0.000000 
H        0.437742    1.073831    0.889854 
H        0.437742    1.073831   -0.889854 
O       -0.046573   -0.756341    0.000000 
H        0.864403   -1.051800    0.000000 
2
name=" hcl " energy_kcal_mol=107.499
Cl       0.000000    0.000000    0.070867 
H        0.000000    0.000000   -1.204737 
3
name=" nh2 " energy_kcal_mol=182.591
N        0.000000    0.000000    0.142235 
H        0.000000    0.800646   -0.497821 
H        0.000000   -0.800646   -0.497821 
2
name=" nh " energy_kcal_mol=83.096
N        0.000000    0.000000    0.129649 
H        0.000000    0.000000   -0.907543 
6
name=" ch2nh2 " energy_kcal_mol=482.276
C       -0.014839    0.731842    0.000000 
H       -0.282488    1.212696    0.928854 
H       -0.282488    1.212696   -0.928854 
N       -0.014839   -0.664850    0.000000 
H        0.378943   -1.081246   -0.828686 
H        0.378943   -1.081246    0.828686 
4
name=" bhf2 " energy_kcal_mol=410.973
B        0.000000    0.000000    0.456950 
H        0.000000    0.000000    1.642303 
F        0.000000    1.126643   -0.218170 
F        0.000000   -1.126643   -0.218170 
3
name=" h2o " energy_kcal_mol=232.974
O        0.000000    0.000000    0.117790 
H        0.000000    0.755453   -0.471161 
H        0.000000   -0.755453   -0.471161 
2
name=" hf " energy_kcal_mol=141.640
F        0.000000    0.000000    0.091577 
H        0.000000    0.000000   -0.824192 
5
name=" ch2ch " energy_kcal_mol=446.081
C        0.049844    0.724055    0.000000 
H       -0.685394    1.513220    0.000000 
C        0.049844   -0.589606    0.000000 
H        0.969053   -1.164741    0.000000 
H       -0.881783   -1.155172    0.000000 
2
name=" oh " energy_kcal_mol=107.208
O        0.000000    0.000000    0.107851 
H        0.000000    0.000000   -0.862809 
7
name=" propyne " energy_kcal_mol=705.605
H       -0.000008    2.489332    0.000000 
H       -1.020250   -1.628447    0.000000 
H        0.510119   -1.628426    0.883542 
H        0.510119   -1.628426   -0.883542 
C       -0.000004    1.426421    0.000000 
C        0.000000    0.218281    0.000000 
C        0.000008   -1.245375    0.000000 
7
name=" acetaldehyde " energy_kcal_mol=677.864
C        0.000000    0.463403    0.000000 
O        1.205540    0.374658    0.000000 
H       -0.484415    1.458495    0.000000 
C       -0.936133   -0.711830    0.000000 
H       -0.376435   -1.644095    0.000000 
H       -1.583337   -0.660551    0.878440 
H       -1.583337   -0.660551   -0.878440 
7
name=" allene " energy_kcal_mol=704.100
C        0.000000    0.000000    0.000000 
C        0.000000    0.000000    1.310515 
C        0.000000    0.000000   -1.310515 
H       -0.929020    0.000000   -1.866060 
H        0.929020    0.000000   -1.866060 
H        0.000000    0.929020    1.866060 
H        0.000000   -0.929020    1.866060 
5
name=" sif4 " energy_kcal_mol=577.780
F        0.900915    0.900915    0.900915 
Si       0.000000    0.000000    0.000000 
F       -0.900915   -0.900915    0.900915 
F       -0.900915    0.900915   -0.900915 
F        0.900915   -0.900915   -0.900915 
4
name=" bf3 " energy_kcal_mol=470.973
B        0.000000    0.000000    0.000000 
F        0.000000    1.310300    0.000000 
F        1.134753   -0.655150    0.000000 
F       -1.134753   -0.655150    0.000000 
6
name=" c2h3f " energy_kcal_mol=573.892
C        1.186000   -0.155452    0.000000 
C        0.000000    0.435875    0.000000 
H        1.277837   -1.231598    0.000000 
H        2.074598    0.456585    0.000000 
H       -0.175306    1.502406    0.000000 
F       -1.143681   -0.267771    0.000000 
7
name=" oxirane " energy_kcal_mol=651.526
O        0.000000    0.000000    0.854408 
C        0.000000    0.732294   -0.373090 
C        0.000000   -0.732294   -0.373090 
H        0.919428    1.263085   -0.589547 
H       -0.919428    1.263085   -0.589547 
H        0.919428   -1.263085   -0.589547 
H       -0.919428   -1.263085   -0.589547 
5
name=" ch2f2 " energy_kcal_mol=437.668
C        0.000000    0.000000    0.491517 
H        0.889927    0.000000    1.120790 
H       -0.889927    0.000000    1.120790 
F        0.000000    1.102928   -0.288371 
F        0.000000   -1.102928   -0.288371 
4
name=" alf3 " energy_kcal_mol=430.967
Al       0.000000    0.000000    0.000000 
F        0.000000    1.631766    0.000000 
F        1.413150   -0.815883    0.000000 
F       -1.413150   -0.815883    0.000000 
3
name=" bef2 " energy_kcal_mol=309.099
Be       0.000000    0.000000    0.000000 
F        0.000000    0.000000    1.379590 
F        0.000000    0.000000   -1.379590 
4
name=" ch2c " energy_kcal_mol=359.934
C        0.000000    0.000000    0.822002 
C        0.000000    0.000000   -0.480768 
H        0.000000    0.940391   -1.023703 
H        0.000000   -0.940391   -1.023703 
6
name=" n2h4 " energy_kcal_mol=438.281
N        0.000000    0.719171   -0.077583 
N        0.000000   -0.719171   -0.077583 
H       -0.215861    1.085383    0.842585 
H        0.942076    1.009588   -0.299501 
H        0.215861   -1.085383    0.842585 
H       -0.942076   -1.009588   -0.299501 
5
name=" ch2nh " energy_kcal_mol=439.441
C        0.056583    0.587652    0.000000 
N        0.056583   -0.686508    0.000000 
H       -0.902305   -1.034264    0.000000 
H       -0.843818    1.204585    0.000000 
H        1.010542    1.109323    0.000000 
2
name=" alf " energy_kcal_mol=163.780
Al       0.000000    0.000000    0.680339 
F        0.000000    0.000000   -0.982712 
8
name=" acetic " energy_kcal_mol=804.017
C        0.000000    0.155074    0.000000 
C        1.060329   -0.907990    0.000000 
O        0.187520    1.344716    0.000000 
O       -1.241577   -0.384989    0.000000 
H       -1.854467    0.361264    0.000000 
H        2.040021   -0.441543    0.000000 
H        0.942465   -1.540021    0.879585 
H        0.942465   -1.540021   -0.879585 
4
name=" c2h2 " energy_kcal_mol=405.525
H        0.000000    0.000000    1.666650 
C        0.000000    0.000000    0.603250 
C        0.000000    0.000000   -0.603250 
H        0.000000    0.000000   -1.666650 
4
name=" h2co " energy_kcal_mol=374.658
O        0.000000    0.000000    0.675860 
C        0.000000    0.000000   -0.530740 
H        0.000000    0.936954   -1.111223 
H        0.000000   -0.936954   -1.111223 
4
name=" h2cn " energy_kcal_mol=343.749
C        0.000000    0.000000   -0.507513 
H        0.000000    0.936731   -1.073924 
H        0.000000   -0.936731   -1.073924 
N        0.000000    0.000000    0.741847 
2
name=" bf " energy_kcal_mol=182.517
F        0.000000    0.000000    0.452679 
B        0.000000    0.000000   -0.814821 
3
name=" becl2 " energy_kcal_mol=225.274
Be       0.000000    0.000000    0.000000 
Cl       0.000000    0.000000    1.799840 
Cl       0.000000    0.000000   -1.799840 
4
name=" t-hcoh " energy_kcal_mol=322.477
C        0.010522    0.742943    0.000000 
H       -1.077050    0.977417    0.000000 
O        0.010522   -0.571411    0.000000 
H        0.929743   -0.863789    0.000000 
4
name=" alcl3 " energy_kcal_mol=312.651
Al       0.000000    0.000000    0.000000 
Cl       0.000000    2.070971    0.000000 
Cl       1.793513   -1.035485    0.000000 
Cl      -1.793513   -1.035485    0.000000 
4
name=" c-hcoh " energy_kcal_mol=317.647
C        0.122314    0.743301    0.000000 
H       -0.950472    1.063696    0.000000 
O        0.122314   -0.569682    0.000000 
H       -0.761926   -0.966045    0.000000 
2
name=" alcl " energy_kcal_mol=122.618
Al       0.000000    0.000000   -1.213241 
Cl       0.000000    0.000000    0.927773 
5
name=" ketene " energy_kcal_mol=533.462
C        0.000000    0.000000   -1.212911 
H        0.000000    0.941658   -1.736011 
H        0.000000   -0.941658   -1.736011 
C        0.000000    0.000000    0.103124 
O        0.000000    0.000000    1.266343 
2
name=" sif " energy_kcal_mol=142.710
F        0.000000    0.000000   -0.978618 
Si       0.000000    0.000000    0.629112 
5
name=" formic " energy_kcal_mol=501.899
C        0.000000    0.421944    0.000000 
H       -0.374304    1.449673    0.000000 
O        1.157954    0.108822    0.000000 
O       -1.030349   -0.440495    0.000000 
H       -0.646531   -1.327950    0.000000 
4
name=" hcnh " energy_kcal_mol=336.249
C        0.000391    0.650313    0.000000 
H        0.897827    1.274311    0.000000 
N        0.000391   -0.588278    0.000000 
H       -0.902908   -1.058244    0.000000 
6
name=" glyoxal " energy_kcal_mol=635.101
C       -0.329185    0.684597    0.000000 
C        0.329185   -0.684597    0.000000 
H       -1.431662    0.674507    0.000000 
H        1.431662   -0.674507    0.000000 
O        0.329185    1.696714    0.000000 
O       -0.329185   -1.696714    0.000000 
4
name=" hcof " energy_kcal_mol=403.743
C        0.000000    0.397532    0.000000 
O        1.147071    0.120481    0.000000 
H       -0.445830    1.393761    0.000000 
F       -0.970082   -0.526978    0.000000 
4
name=" nh2cl " energy_kcal_mol=248.059
N       -0.043583    1.126132    0.000000 
H        0.522994    1.365749    0.808624 
H        0.522994    1.365749   -0.808624 
Cl      -0.043583   -0.624378    0.000000 
5
name=" cf4 " energy_kcal_mol=478.760
F        0.760903    0.760903    0.760903 
C        0.000000    0.000000    0.000000 
F       -0.760903   -0.760903    0.760903 
F       -0.760903    0.760903   -0.760903 
F        0.760903   -0.760903   -0.760903 
4
name=" hccf " energy_kcal_mol=398.472
C        0.000000    0.000000   -1.292877 
C        0.000000    0.000000   -0.093379 
H        0.000000    0.000000   -2.354022 
F        0.000000    0.000000    1.185729 
3
name=" hcn " energy_kcal_mol=313.418
H        0.000000    0.000000   -1.568800 
C        0.000000    0.000000   -0.502000 
N        0.000000    0.000000    0.654400 
3
name=" hnc " energy_kcal_mol=298.203
H        0.000000    0.000000    1.427314 
N        0.000000    0.000000    0.431142 
C        0.000000    0.000000   -0.740885 
3
name=" cch " energy_kcal_mol=266.163
C        0.000000    0.000000    0.734134 
C        0.000000    0.000000   -0.477182 
H        0.000000    0.000000   -1.541710 
3
name=" hco " energy_kcal_mol=279.422
O        0.061552   -0.592186    0.000000 
C        0.061552    0.586301    0.000000 
H       -0.861727    1.219685    0.000000 
2
name=" co " energy_kcal_mol=259.727
C        0.000000    0.000000   -0.646514 
O        0.000000    0.000000    0.484886 
5
name=" oxirene " energy_kcal_mol=456.072
C        0.000000    0.635515   -0.462952 
C        0.000000   -0.635515   -0.462952 
H        0.000000   -1.652256   -0.793740 
H        0.000000    1.652256   -0.793740 
O        0.000000    0.000000    0.892862 
4
name=" f2co " energy_kcal_mol=420.636
O        0.000000    0.000000    1.312207 
C        0.000000    0.000000    0.140770 
F        0.000000    1.058663   -0.630126 
F        0.000000   -1.058663   -0.630126 
4
name=" hocn " energy_kcal_mol=410.066
C        0.000000    0.179944    0.000000 
N        0.068513    1.339387    0.000000 
O       -0.149603   -1.114886    0.000000 
H        0.717232   -1.536279    0.000000 
4
name=" hooh " energy_kcal_mol=269.089
H        0.788278    0.891936    0.468613 
O        0.000000    0.726241   -0.058577 
O        0.000000   -0.726241   -0.058577 
H       -0.788278   -0.891936    0.468613 
4
name=" t-n2h2 " energy_kcal_mol=296.534
H       -0.989366    0.909480    0.000000 
N        0.000000    0.624690    0.000000 
N        0.000000   -0.624690    0.000000 
H        0.989366   -0.909480    0.000000 
4
name=" hnco " energy_kcal_mol=434.737
C        0.000000    0.050807    0.000000 
O       -0.567947    1.069462    0.000000 
N        0.444803   -1.083005    0.000000 
H        1.429958   -1.279500    0.000000 
4
name=" c-n2h2 " energy_kcal_mol=291.135
H        0.000000    1.008140    0.840315 
N        0.000000    0.624028   -0.120045 
N        0.000000   -0.624028   -0.120045 
H        0.000000   -1.008140    0.840315 
3
name=" cf2 " energy_kcal_mol=258.782
C        0.000000    0.000000    0.593262 
F        0.000000    1.027990   -0.197754 
F        0.000000   -1.027990   -0.197754 
3
name=" co2 " energy_kcal_mol=390.141
C        0.000000    0.000000    0.000000 
O        0.000000    0.000000    1.162600 
O        0.000000    0.000000   -1.162600 
4
name=" fccf " energy_kcal_mol=386.087
F        0.000000    0.000000    1.880463 
C        0.000000    0.000000    0.594580 
C        0.000000    0.000000   -0.594580 
F        0.000000    0.000000   -1.880463 
5
name=" dioxirane " energy_kcal_mol=410.029
C        0.000000    0.000000    0.726733 
H        0.925497    0.000000    1.296225 
H       -0.925497    0.000000    1.296225 
O        0.000000    0.757104   -0.434553 
O        0.000000   -0.757104   -0.434553 
2
name=" cf " energy_kcal_mol=132.721
C        0.000000    0.000000   -0.764852 
F        0.000000    0.000000    0.509901 
3
name=" ssh " energy_kcal_mol=165.128
S        0.040128   -0.950243    0.000000 
H       -1.284084   -1.214398    0.000000 
S        0.040128    1.026143    0.000000 
3
name=" hocl " energy_kcal_mol=166.229
O        0.036173    1.099619    0.000000 
H       -0.904317    1.310761    0.000000 
Cl       0.036173   -0.594571    0.000000 
4
name=" nccn " energy_kcal_mol=502.037
N        0.000000    0.000000    1.855199 
C        0.000000    0.000000    0.693922 
C        0.000000    0.000000   -0.693922 
N        0.000000    0.000000   -1.855199 
2
name=" n2 " energy_kcal_mol=228.485
N        0.000000    0.000000    0.550150 
N        0.000000    0.000000   -0.550150 
3
name=" n2h " energy_kcal_mol=224.864
H        0.876819   -0.987844    0.000000 
N       -0.062630   -0.519017    0.000000 
N       -0.062630    0.660138    0.000000 
3
name=" ocs " energy_kcal_mol=335.747
O        0.000000    0.000000   -1.685171 
C        0.000000    0.000000   -0.526739 
S        0.000000    0.000000    1.040112 
2
name=" sio " energy_kcal_mol=193.052
Si       0.000000    0.000000    0.551651 
O        0.000000    0.000000   -0.965390 
3
name=" clcn " energy_kcal_mol=285.447
Cl       0.000000    0.000000    0.979935 
C        0.000000    0.000000   -0.655771 
N        0.000000    0.000000   -1.817753 
3
name=" hoo " energy_kcal_mol=175.533
O        0.055329    0.718293    0.000000 
O        0.055329   -0.611983    0.000000 
H       -0.885259   -0.850475    0.000000 
4
name=" hcno " energy_kcal_mol=364.971
C        0.000000    0.000000   -1.181861 
H        0.000000    0.000000   -2.242407 
N        0.000000    0.000000   -0.019830 
O        0.000000    0.000000    1.184048 
4
name=" honc " energy_kcal_mol=350.149
H        0.931463   -1.340471    0.000000 
O       -0.002788   -1.095226    0.000000 
N        0.000000    0.238268    0.000000 
C       -0.151527    1.405734    0.000000 
3
name=" hno " energy_kcal_mol=205.890
N        0.062619    0.584988    0.000000 
H       -0.939290    0.910719    0.000000 
O        0.062619   -0.625704    0.000000 
3
name=" hof " energy_kcal_mol=158.653
H       -0.904390    0.840938    0.000000 
O        0.053199    0.710109    0.000000 
F        0.053199   -0.724645    0.000000 
4
name=" c-hono " energy_kcal_mol=312.219
O        1.083192    0.071129    0.000000 
N        0.000000    0.549439    0.000000 
O       -1.014443   -0.395320    0.000000 
H       -0.549996   -1.252549    0.000000 
4
name=" t-hono " energy_kcal_mol=312.649
O       -1.112365    0.152366    0.000000 
N        0.000000    0.518688    0.000000 
O        0.893151   -0.587415    0.000000 
H        1.753712   -0.150429    0.000000 
3
name=" cs2 " energy_kcal_mol=280.778
C        0.000000    0.000000    0.000000 
S        0.000000    0.000000    1.557634 
S        0.000000    0.000000   -1.557634 
4
name=" hnnn " energy_kcal_mol=331.785
H        1.078972   -1.381810    0.000000 
N        0.093770   -1.129880    0.000000 
N        0.000000    0.111098    0.000000 
N       -0.247909    1.216183    0.000000 
2
name=" cs " energy_kcal_mol=172.218
C        0.000000    0.000000   -1.121115 
S        0.000000    0.000000    0.420418 
2
name=" cn " energy_kcal_mol=181.350
C        0.000000    0.000000   -0.630980 
N        0.000000    0.000000    0.540840 
4
name=" so3 " energy_kcal_mol=346.943
S        0.000000    0.000000    0.000000 
O        0.000000    1.422790    0.000000 
O        1.232172   -0.711395    0.000000 
O       -1.232172   -0.711395    0.000000 
3
name=" ccl2 " energy_kcal_mol=177.357
C        0.000000    0.000000    0.846282 
Cl       0.000000    1.400407   -0.149344 
Cl       0.000000   -1.400407   -0.149344 
2
name=" bn3pi " energy_kcal_mol=105.815
B        0.000000    0.000000   -0.775950 
N        0.000000    0.000000    0.554250 
3
name=" so2 " energy_kcal_mol=260.621
S        0.000000    0.000000    0.362207 
O        0.000000    1.239318   -0.362207 
O        0.000000   -1.239318   -0.362207 
2
name=" no " energy_kcal_mol=152.745
N        0.000000    0.000000   -0.614827 
O        0.000000    0.000000    0.537973 
2
name=" so " energy_kcal_mol=126.465
S        0.000000    0.000000    0.495405 
O        0.000000    0.000000   -0.990810 
3
name=" n2o " energy_kcal_mol=270.849
N        0.000000    0.000000   -1.201477 
N        0.000000    0.000000   -0.072377 
O        0.000000    0.000000    1.114623 
4
name=" c-hooo " energy_kcal_mol=233.089
O        1.143943    0.075354    0.000000 
O        0.000000    0.576945    0.000000 
O       -1.082114   -0.493872    0.000000 
H       -0.494634   -1.267419    0.000000 
2
name=" s2 " energy_kcal_mol=104.251
S        0.000000    0.000000    0.948442 
S        0.000000    0.000000   -0.948442 
4
name=" p4 " energy_kcal_mol=290.578
P        0.777375    0.777375    0.777375 
P       -0.777375   -0.777375    0.777375 
P       -0.777375    0.777375   -0.777375 
P        0.777375   -0.777375   -0.777375 
2
name=" cl2 " energy_kcal_mol=59.750
Cl       0.000000    0.000000    0.998288 
Cl       0.000000    0.000000   -0.998288 
2
name=" o2 " energy_kcal_mol=120.824
O        0.000000    0.000000    0.603900 
O        0.000000    0.000000   -0.603900 
2
name=" f2 " energy_kcal_mol=39.042
F        0.000000    0.000000    0.706450 
F        0.000000    0.000000   -0.706450 
4
name=" t-hooo " energy_kcal_mol=233.297
O        1.174393    0.194313    0.000000 
O        0.000000    0.553180    0.000000 
O       -0.950471   -0.717715    0.000000 
H       -1.791374   -0.238229    0.000000 
3
name=" s2o " energy_kcal_mol=208.781
S       -0.726771   -1.075032    0.000000 
S        0.000000    0.671244    0.000000 
O        1.453541    0.807576    0.000000 
2
name=" p2 " energy_kcal_mol=117.593
P        0.000000    0.000000    0.950975 
P        0.000000    0.000000   -0.950975 
2
name=" clf " energy_kcal_mol=62.800
Cl       0.000000    0.000000    0.564862 
F        0.000000    0.000000   -1.066961 
3
name=" no2 " energy_kcal_mol=227.882
N        0.000000    0.000000    0.323967 
O        0.000000    1.101234   -0.141735 
O        0.000000   -1.101234   -0.141735 
2
name=" clo " energy_kcal_mol=65.447
Cl       0.000000    0.000000    0.503953 
O        0.000000    0.000000   -1.070901 
3
name=" s3 " energy_kcal_mol=168.364
S        0.000000    0.000000    0.665312 
S        0.000000    1.640064   -0.332656 
S        0.000000   -1.640064   -0.332656 
3
name=" cl2o " energy_kcal_mol=101.457
O        0.000000    0.000000    0.780075 
Cl       0.000000    1.401172   -0.183547 
Cl       0.000000   -1.401172   -0.183547 
4
name=" s4-c2v " energy_kcal_mol=234.348
S        0.000000    1.552343    0.921961 
S        0.000000    1.068508   -0.921961 
S        0.000000   -1.068508   -0.921961 
S        0.000000   -1.552343    0.921961 
2
name=" of " energy_kcal_mol=53.075
O        0.000000    0.000000   -0.716295 
F        0.000000    0.000000    0.636707 
2
name=" c2 " energy_kcal_mol=147.023
C        0.000000    0.000000    0.620000 
C        0.000000    0.000000   -0.620000 
3
name=" oclo " energy_kcal_mol=128.120
Cl       0.000000    0.000000    0.370540 
O        0.000000    1.259082   -0.393699 
O        0.000000   -1.259082   -0.393699 
3
name=" f2o " energy_kcal_mol=93.780
F        0.000000    1.100771   -0.268941 
O        0.000000    0.000000    0.605118 
F        0.000000   -1.100771   -0.268941 
2
name=" b2 " energy_kcal_mol=67.459
B        0.000000    0.000000    0.793777 
B        0.000000    0.000000   -0.793777 
3
name=" fo2 " energy_kcal_mol=134.721
F       -1.011195   -0.706276    0.000000 
O        0.000000    0.575215    0.000000 
O        1.137595    0.219345    0.000000 
3
name=" cloo " energy_kcal_mol=126.385
Cl      -0.560974   -0.994637    0.000000 
O        0.000000    0.958712    0.000000 
O        1.192069    1.154892    0.000000 
4
name=" foof " energy_kcal_mol=152.369
F        0.555710    1.384434   -0.493986 
O        0.555710    0.268181    0.555734 
O       -0.555710   -0.268181    0.555734 
F       -0.555710   -1.384434   -0.493986 
3
name=" o3 " energy_kcal_mol=147.428
O        0.000000    0.000000    0.441224 
O        0.000000    1.082525   -0.220612 
O        0.000000   -1.082525   -0.220612 
2
name=" bn " energy_kcal_mol=105.239
B        0.000000    0.000000   -0.748417 
N        0.000000    0.000000    0.534583 
2
name=" be2 " energy_kcal_mol=2.669
Be       0.000000    0.000000    1.250659 
Be       0.000000    0.000000   -1.250659 
