6
Properties=species:S:1:pos:R:3 name=" H2O2 " energy_kcal_mol=4.974 smiles=O.O pbc="F F F"
O       -1.33050650       0.99907410       0.00000000
H       -1.06354550       1.92108710       0.00000000
H       -0.50513260       0.49194210       0.00000000
O        1.00521440      -0.75126820       0.00000000
H        0.94698510      -1.33041760      -0.76557520
H        0.94698510      -1.33041760       0.76557520
9
Properties=species:S:1:pos:R:3 name=" H2O3 " energy_kcal_mol=15.708 smiles=O.O.O pbc="F F F"
O        1.18470290       1.11507920      -0.03446410
H        0.49390880       0.95637670       0.63400890
H        2.02426760       1.08112460       0.43014170
O       -1.14694430       0.06976490       1.14701960
H       -1.27983080      -0.52321690       1.89028330
H       -1.06413980      -0.49566930       0.35692500
O       -0.16335080      -1.02893460      -1.24018080
H        0.49147710      -0.32487330      -1.07848380
H       -0.54009070      -0.84965120      -2.10524990
12
Properties=species:S:1:pos:R:3 name=" H2O4 " energy_kcal_mol=27.353 smiles=O.O.O.O pbc="F F F"
O       -1.45649240       1.28720930      -0.00736890
H       -0.49296700       1.47969270      -0.00986060
H       -1.81941990       1.74937310       0.75214360
O       -1.28720930      -1.45649240       0.00736890
H       -1.47969270      -0.49296700       0.00986060
H       -1.74937310      -1.81941990      -0.75214360
O        1.45649240      -1.28720930      -0.00736890
H        0.49296700      -1.47969270      -0.00986060
H        1.81941990      -1.74937310       0.75214360
O        1.28720930       1.45649240       0.00736890
H        1.47969270       0.49296700       0.00986060
H        1.74937310       1.81941990      -0.75214360
15
Properties=species:S:1:pos:R:3 name=" H2O5 " energy_kcal_mol=35.879 smiles=O.O.O.O.O pbc="F F F"
O       -1.12680240      -1.54211470       1.31153750
H       -0.76619030      -2.02088880       2.06191280
H       -1.04254730      -0.58758110       1.53755040
O        0.08037810      -2.04082140      -1.08662710
H       -0.52978730      -2.56765170      -1.60766190
H       -0.36157440      -1.89019650      -0.21986780
O        0.86535640       2.15772690      -0.00512640
H        0.98968380       1.51183440      -0.73750010
H        1.74771740       2.40243940       0.28417360
O       -0.79802090       1.10554240       1.88339640
H       -0.19253830       1.51585270       1.22428250
H       -1.58004720       1.66206360       1.90827240
O        1.16753350       0.31035770      -1.99230840
H        0.76793850       0.53643480      -2.83543870
H        0.77890050      -0.55299750      -1.72659520
18
Properties=species:S:1:pos:R:3 name=" H2O6 " energy_kcal_mol=45.988 smiles=O.O.O.O.O.O pbc="F F F"
O        1.42825800      -0.40036710       1.41065840
H        0.49628690      -0.73117230       1.52660430
H        1.93466140      -0.70271630       2.16827600
O        0.73729180       1.98931720      -0.06951320
H        1.06370870       1.44579760       0.66524510
H        1.09894640       1.53859800      -0.84481070
O        1.62555090      -0.52608920      -1.36333210
H        2.35461660      -0.95284440      -1.82026700
H        1.76564660      -0.66675150      -0.40686620
O       -1.91746270       1.24548470      -0.07588470
H       -1.01952820       1.64533980      -0.08613040
H       -2.54355060       1.96847540      -0.16154320
O       -1.20378710      -1.31119930      -1.37741100
H       -0.27178080      -1.12924980      -1.57557940
H       -1.60901410      -0.43639750      -1.28233550
O       -1.13157770      -1.15889860       1.42431350
H       -1.19170480      -1.49418910       0.50620380
H       -1.61656140      -0.32313760       1.36237250
18
Properties=species:S:1:pos:R:3 name=" H2O6c " energy_kcal_mol=45.733 smiles=O.O.O.O.O.O pbc="F F F"
O       -2.12624300       0.91974980       1.82649580
H       -2.18812220       1.46201460       2.61584760
H       -1.59863580       1.42651820       1.17377160
O       -0.62420040      -1.35331660       1.17571030
H       -1.19880540      -0.67942870       1.58777590
H        0.27298330      -0.99630750       1.26452310
O        1.82876240       0.17548170       0.64226390
H        2.03924990      -0.20294550      -0.24015640
H        2.66325120       0.29793410       1.10137490
O       -0.84229950      -0.84385390      -1.44904390
H       -1.54547620      -1.31618200      -1.90165150
H       -0.86134230      -1.13663640      -0.49863660
O       -0.45371510       1.83282640      -0.19153920
H       -0.72816570       1.16381050      -0.83645460
H        0.40136880       1.50543040       0.13034230
O        1.89220430      -0.90998540      -1.87069720
H        2.15375510      -0.37201420      -2.62224920
H        0.91543070      -0.97309550      -1.90767680
18
Properties=species:S:1:pos:R:3 name=" H2O6b " energy_kcal_mol=45.292 smiles=O.O.O.O.O.O pbc="F F F"
O        0.11448390       1.51123330       0.84351300
H        0.95880570       1.47155800       0.32950020
H        0.26129100       2.12410910       1.56850110
O       -0.02817040      -1.43708230       0.98511820
H       -0.03831270      -0.48623200       1.17189380
H       -0.86424990      -1.59839380       0.50558840
O       -2.35379810       1.32801810      -0.46182080
H       -1.48714230       1.50194040      -0.04531090
H       -2.34725340       1.79416500      -1.30125670
O       -2.46767110      -1.45760270      -0.41854610
H       -2.53975420      -0.48503720      -0.49641690
H       -3.26029000      -1.74564200       0.04080620
O        2.42644950       1.14816000      -0.49586370
H        2.48383490       0.16184560      -0.50914940
H        2.52619220       1.43384880      -1.40718630
O        2.27629140      -1.54900490      -0.42626720
H        1.42256370      -1.63495390       0.06497690
H        2.91672960      -2.08092950       0.05192010
18
Properties=species:S:1:pos:R:3 name=" H2O6c2 " energy_kcal_mol=44.296 smiles=O.O.O.O.O.O pbc="F F F"
O        1.86301620       1.96990950       0.11907940
H        0.90569740       2.17870840       0.02387600
H        2.15230450       2.42041880       0.91606400
O        0.77448360      -2.59837410       0.11907940
H        1.01999190      -3.07415980       0.91606400
H        1.43396810      -1.87371120       0.02387600
O        2.63749980      -0.62846460      -0.11907940
H        2.33966560       0.30499720      -0.02387600
H        3.17229640      -0.65374100      -0.91606400
O       -1.86301620      -1.96990950      -0.11907940
H       -2.15230450      -2.42041880      -0.91606400
H       -0.90569740      -2.17870840      -0.02387600
O       -0.77448360       2.59837410      -0.11907940
H       -1.01999190       3.07415980      -0.91606400
H       -1.43396810       1.87371120      -0.02387600
O       -2.63749980       0.62846460       0.11907940
H       -3.17229640       0.65374100       0.91606400
H       -2.33966560      -0.30499720       0.02387600
24
Properties=species:S:1:pos:R:3 name=" H2O8d2d " energy_kcal_mol=72.49 smiles=O.O.O.O.O.O.O.O pbc="F F F"
O       -1.46455520      -1.46455520       1.34970670
O       -1.46455520       1.46455520      -1.34970670
O        1.46455520      -1.46455520      -1.34970670
O        1.46455520       1.46455520       1.34970670
H       -1.53466540      -1.53466540       0.36225540
H       -1.53466540       1.53466540      -0.36225540
H        1.53466540      -1.53466540      -0.36225540
H        1.53466540       1.53466540       0.36225540
H       -2.08966360      -2.08966360       1.72511120
H       -2.08966360       2.08966360      -1.72511120
H        2.08966360      -2.08966360      -1.72511120
H        2.08966360       2.08966360       1.72511120
O       -1.40528860      -1.40528860      -1.33900820
O       -1.40528860       1.40528860       1.33900820
O        1.40528860      -1.40528860       1.33900820
O        1.40528860       1.40528860      -1.33900820
H       -1.55261580      -0.46206450      -1.52689890
H       -1.55261580       0.46206450       1.52689890
H        1.55261580      -0.46206450       1.52689890
H       -0.46206450      -1.55261580      -1.52689890
H        0.46206450       1.55261580      -1.52689890
H        0.46206450      -1.55261580       1.52689890
H       -0.46206450       1.55261580       1.52689890
H        1.55261580       0.46206450      -1.52689890
24
Properties=species:S:1:pos:R:3 name=" H2O8s4 " energy_kcal_mol=72.454 smiles=O.O.O.O.O.O.O.O pbc="F F F"
O        1.99059110      -0.10840030      -1.46522910
H        1.33029280      -0.84678680      -1.53045190
H        2.70353950      -0.31034520      -2.07624000
O       -0.10840030      -1.99059110       1.46522910
H       -0.31034520      -2.70353950       2.07624000
H       -0.84678680      -1.33029280       1.53045190
O       -1.93875320      -0.02557560       1.40160920
H       -2.17246660       0.02636080       0.45836950
H       -1.39882400       0.76704410       1.56446470
O        0.02557560      -1.93875320      -1.40160920
H       -0.02636080      -2.17246660      -0.45836950
H       -0.76704410      -1.39882400      -1.56446470
O       -0.02557560       1.93875320      -1.40160920
H        0.76704410       1.39882400      -1.56446470
H        0.02636080       2.17246660      -0.45836950
O        0.10840030       1.99059110       1.46522910
H        0.84678680       1.33029280       1.53045190
H        0.31034520       2.70353950       2.07624000
O       -1.99059110       0.10840030      -1.46522910
H       -1.33029280       0.84678680      -1.53045190
H       -2.70353950       0.31034520      -2.07624000
O        1.93875320       0.02557560       1.40160920
H        2.17246660      -0.02636080       0.45836950
H        1.39882400      -0.76704410       1.56446470
60
Properties=species:S:1:pos:R:3 name=" H2O20 " energy_kcal_mol=197.804 smiles=O.O.O.O.O.O.O.O.O.O.O.O.O.O.O.O.O.O.O.O pbc="F F F"
O        1.59729520       3.63429290       0.11656280
O        3.45700310       1.54578070       0.87150440
O       -0.57424000       3.48895600       1.79563750
O        0.62956010       2.90309910      -2.48032880
O        2.56288700       0.23804230       2.97580150
O       -0.00612540       1.30309040       3.62506870
O        3.66947580      -0.19202240      -1.25079830
O       -2.65881760       2.72445060       0.37113450
O        1.93651790       0.59106020      -3.38880870
O       -1.98195260       2.48992640      -2.33899770
O        2.03566430      -2.40181640       2.17872740
O       -1.88457920      -0.66872130       3.29975760
O        2.79321490      -2.79841870      -0.30204580
O       -3.71350370       0.20903270       1.22628520
O        0.10627250      -1.29328100      -3.64857370
O       -2.38129580      -0.25899360      -3.05307270
O       -0.72796850      -2.90245510       2.55159240
O        0.59415140      -3.46115300      -1.78412900
O       -3.48342480      -1.66515380      -0.76021000
O       -1.66479640      -3.42655880      -0.03889930
H        0.83665720       3.64980000       0.74069490
H        1.98697460       4.51265070       0.13636020
H        2.85315820       2.25524770       0.59910120
H        3.55644270       0.95286630       0.09249700
H       -0.86034600       4.25747330       2.29711510
H       -1.36761550       3.19806120       1.25971420
H        1.00581720       3.13542910      -1.61403480
H        1.11761890       2.11793090      -2.79778730
H        3.22188520       0.33396450       3.66875950
H        2.91731100       0.73623700       2.18258830
H        0.88688020       0.97039100       3.42273820
H       -0.15837750       2.04799940       3.02124740
H        3.37308310      -1.07357470      -0.97152900
H        3.10508970       0.05399600      -2.00513500
H       -2.46565620       2.66105510      -0.58482480
H       -3.03022590       1.86422370       0.63494990
H        1.24489370      -0.12266490      -3.50322960
H        2.36859470       0.68444000      -4.24218840
H       -2.39880560       3.10361860      -2.94993440
H       -0.99908540       2.65096090      -2.40915620
H        1.08941300      -2.56735330       2.34852710
H        2.21995540      -1.49377650       2.49010530
H       -2.50671420      -0.34372610       2.62919540
H       -1.22858210       0.05233330       3.44066250
H        3.55216610      -3.38661150      -0.25629540
H        2.50196310      -2.64791440       0.64643440
H       -4.62228850       0.26388380       1.53457240
H       -3.69962560      -0.47257800       0.51539930
H        0.25118800      -2.03330380      -3.03731700
H       -0.79629640      -0.95231110      -3.45932510
H       -2.28613860       0.67887680      -2.81156170
H       -2.77539770      -0.69839720      -2.28226310
H       -0.91902390      -3.55949600       3.22649450
H       -1.17174960      -2.05426020       2.85288460
H        0.72276440      -4.30910970      -2.21798020
H        1.42100610      -3.27606380      -1.28036660
H       -4.24866720      -2.17416340      -1.04204660
H       -2.79072200      -2.33587810      -0.48849450
H       -0.88442050      -3.45286250      -0.62097710
H       -1.32846240      -3.28655150       0.86819730
60
Properties=species:S:1:pos:R:3 name=" H2O20fc " energy_kcal_mol=207.534 smiles=O.O.O.O.O.O.O.O.O.O.O.O.O.O.O.O.O.O.O.O pbc="F F F"
O       -0.00406750       1.93708460      -5.68374880
O       -2.00810190      -0.13854280      -5.73517750
O       -0.13854280       2.00810190       5.73517750
O       -1.93708460      -0.00406750       5.68374880
O       -1.97376840       0.02275420       2.80812950
O        1.97376840      -0.02275420       2.80812950
O       -1.96877410       0.02156080      -2.89395430
O        1.96877410      -0.02156080      -2.89395430
O        0.00406750      -1.93708460      -5.68374880
O        2.00810190       0.13854280      -5.73517750
O        0.13854280      -2.00810190       5.73517750
O        1.93708460       0.00406750       5.68374880
O        1.98093130       0.08917780      -0.04438930
O        0.02275420       1.97376840      -2.80812950
O        0.02156080       1.96877410       2.89395430
O       -0.02156080      -1.96877410       2.89395430
O       -0.08917780       1.98093130       0.04438930
O        0.08917780      -1.98093130       0.04438930
O       -0.02275420      -1.97376840      -2.80812950
O       -1.98093130      -0.08917780      -0.04438930
H       -0.79532300       1.38382430      -5.80381100
H       -0.05298780       2.25334700      -4.76722470
H       -1.33022750      -0.86056730      -5.78903160
H       -2.66722940      -0.32022690      -6.40994950
H       -0.32022690       2.66722940       6.40994950
H       -0.86056730       1.33022750       5.78903160
H       -1.38382430      -0.79532300       5.80381100
H       -2.25334700      -0.05298780       4.76722470
H       -2.36753380      -0.00490560       1.92171750
H       -1.35126210       0.78149130       2.79459780
H        2.36753380       0.00490560       1.92171750
H        1.35126210      -0.78149130       2.79459780
H       -2.29317200      -0.03161490      -3.80936850
H       -1.34965050       0.78293600      -2.88702640
H        1.34965050      -0.78293600      -2.88702640
H        2.29317200       0.03161490      -3.80936850
H        0.05298780      -2.25334700      -4.76722470
H        0.79532300      -1.38382430      -5.80381100
H        1.33022750       0.86056730      -5.78903160
H        2.66722940       0.32022690      -6.40994950
H        0.86056730      -1.33022750       5.78903160
H        0.32022690      -2.66722940       6.40994950
H        1.38382430       0.79532300       5.80381100
H        2.25334700       0.05298780       4.76722470
H        1.33572250       0.82795820      -0.04228440
H        2.35281070       0.07832220      -0.94113570
H       -0.00490560       2.36753380      -1.92171750
H        0.78149130       1.35126210      -2.79459780
H        0.78293600       1.34965050       2.88702640
H       -0.03161490       2.29317200       3.80936850
H        0.03161490      -2.29317200       3.80936850
H       -0.78293600      -1.34965050       2.88702640
H       -0.82795820       1.33572250       0.04228440
H       -0.07832220       2.35281070       0.94113570
H        0.07832220      -2.35281070       0.94113570
H        0.82795820      -1.33572250       0.04228440
H        0.00490560      -2.36753380      -1.92171750
H       -0.78149130      -1.35126210      -2.79459780
H       -2.35281070      -0.07832220      -0.94113570
H       -1.33572250      -0.82795820      -0.04228440
60
Properties=species:S:1:pos:R:3 name=" H2O20fs " energy_kcal_mol=207.763 smiles=O.O.O.O.O.O.O.O.O.O.O.O.O.O.O.O.O.O.O.O pbc="F F F"
O       -0.46743370      -1.41564320       2.34248320
H       -0.51038810      -0.53277850       2.73835090
H       -1.15437100      -1.41354190       1.63906020
O       -1.18049530      -4.41148900      -2.02178790
H       -1.60059510      -5.08049950      -2.56840610
H       -1.62965890      -4.44434910      -1.13069220
O       -0.38908220      -4.34161860       2.36492170
H       -0.41223180      -3.42543740       2.67802970
H        0.49544700      -4.45168120       1.97664110
O       -2.37082700      -1.40107480       0.33173880
H       -2.76870530      -0.51906040       0.37643930
H       -1.90081330      -1.43127760      -0.53145610
O       -1.04122150      -1.57734290      -2.08986480
H       -0.07409520      -1.54785770      -1.91829760
H       -1.22108280      -2.50288930      -2.33342690
O        1.64030310      -4.35198480      -1.60309680
H        0.69076370      -4.47911780      -1.78646000
H        1.82344280      -3.43324880      -1.85485910
O       -2.33246400      -4.31911080       0.37106630
H       -1.67491650      -4.41614990       1.09456730
H       -2.66334400      -3.41305950       0.45871350
O        1.67874010      -1.46765790      -1.58954980
H        1.80424910      -1.46838080      -0.61352220
H        1.96912840      -0.59218610      -1.88710450
O        2.01777880      -1.57002440       1.14573360
H        1.13432620      -1.53677830       1.57643150
H        2.31871660      -2.48990230       1.25419410
O        2.18246220      -4.39307410       1.03117360
H        2.85543480      -5.04634680       1.23844940
H        2.00311260      -4.46273080       0.05737090
O       -0.41524010       4.38425050       2.28761380
H       -0.56798340       5.06537000       2.94793040
H       -1.11277010       4.48765400       1.60382640
O       -1.10466140       1.27600420      -2.07868080
H       -1.27379350       0.38605850      -2.42789270
H       -1.54213980       1.29739410      -1.19846560
O       -0.33434170       1.48216100       2.31578370
H        0.53480350       1.41014010       1.86066360
H       -0.37971620       2.39860090       2.62949130
O       -2.27499130       4.37689460       0.23399600
H       -1.79885170       4.34628940      -0.64275510
H       -2.98125640       5.02134820       0.13714790
O       -0.99338230       4.14316440      -2.08436270
H       -0.02988520       4.27010650      -2.00227470
H       -1.10878830       3.22161930      -2.36880390
O        1.63443860       1.39542880      -1.69182880
H        0.66380610       1.36084610      -1.84129940
H        1.89368120       2.30768060      -1.90402980
O       -2.32150840       1.47851630       0.39292660
H       -2.62500910       2.40010870       0.38783130
H       -1.61926120       1.45253180       1.08120560
O        1.81454150       4.24910980      -1.64993600
H        2.40209090       4.89002950      -2.05851390
H        1.98093740       4.28431000      -0.67211550
O        2.16929490       4.13201690       1.01247940
H        2.38101980       3.20111140       1.19335500
H        1.33728680       4.30083390       1.48662780
O        2.09581080       1.26959950       1.02272670
H        2.41832640       0.37685260       1.22847580
H        1.93536230       1.27026280       0.05203640
60
Properties=species:S:1:pos:R:3 name=" H2O20es " energy_kcal_mol=209.081 smiles=O.O.O.O.O.O.O.O.O.O.O.O.O.O.O.O.O.O.O.O pbc="F F F"
O        1.44495070      -2.31923620       1.38521720
H        0.95234090      -1.48426020       1.52886960
H        2.36945690      -2.11394950       1.61166550
O        1.41986890      -2.46260940      -1.40071130
H        1.44123490      -2.49457240      -0.41940910
H        0.77716170      -3.14684640      -1.65757180
O        0.00683710       0.01721960       1.40271570
H        0.38933240       0.90656340       1.56254030
H       -0.96095030       0.05032720       1.56098210
O       -2.73672830      -0.07170730       1.35884210
H       -2.78819470      -0.09461070       0.37790340
H       -2.97859850      -0.97175630       1.64139490
O        4.04546410       1.46279190      -1.46126810
H        4.78810710       1.76398540      -1.99129340
H        4.03332380       0.47318820      -1.53134950
O       -1.00080370       4.22496050       1.49828640
H       -1.15218900       5.00826150       2.03356170
H       -1.83283950       3.68561290       1.54163270
O       -3.22724040       2.74922250      -1.54532550
H       -3.84125730       3.21173490      -2.12178800
H       -2.37033730       3.24859310      -1.58887070
O        0.06154600      -0.06086680      -1.35047880
H        0.54040950      -0.88921360      -1.56889960
H        0.05250240      -0.05173120      -0.36610630
O        1.35057650       2.36243750      -1.42555010
H        2.29434270       2.21803860      -1.61652850
H        0.92556180       1.48779430      -1.55953410
O        4.07971140      -1.27058980       1.51017420
H        4.81843020      -1.53071980       2.06675540
H        4.00882050      -0.28330840       1.57928070
O       -0.91184160       4.11468400      -1.39682770
H       -0.86995720       4.32896840      -0.44935590
H       -0.08974730       3.63055020      -1.58597420
O       -2.68501950      -0.04248160      -1.42744010
H       -2.98314360       0.85600060      -1.65621770
H       -1.71323380      -0.04380860      -1.56353370
O       -3.12954910      -2.86655150      -1.32993760
H       -3.11409010      -1.91914290      -1.54809760
H       -3.30324130      -2.90258620      -0.37369240
O        1.22443400       2.47801050       1.35953770
H        0.58124330       3.16579780       1.60761460
H        1.27284300       2.51610030       0.37930060
O       -0.81281300      -4.23313180      -1.52393250
H       -0.94666070      -5.02136780      -2.05665340
H       -1.66336900      -3.72324250      -1.55436920
O       -3.24988610       2.75445870       1.34798310
H       -3.19246270       1.81202060       1.57904010
H       -3.43475950       2.76669310       0.39285740
O        4.03738370      -1.23135630      -1.38124250
H        3.23352590      -1.71950980      -1.62408190
H        4.16040360      -1.40122540      -0.43129430
O       -3.09401500      -2.88511800       1.56615440
H       -2.21801850      -3.35106140       1.59439760
H       -3.68982420      -3.38678260       2.12859510
O       -0.73325360      -4.16593490       1.36977640
H        0.07092310      -3.65383970       1.56191510
H       -0.68798950      -4.35977980       0.41769590
O        3.90980720       1.41646870       1.42572180
H        3.06604820       1.84957390       1.63677100
H        4.05542250       1.59284030       0.48015290
7
Properties=species:S:1:pos:R:3 name=" H3OpH2O " energy_kcal_mol=33.738 smiles=O.O.[H] pbc="F F F"
O       -1.19972810       0.02902010       0.11574700
H       -1.63142410      -0.73331990       0.52840650
H       -1.69400170       0.29562360      -0.67242250
O        1.19972810      -0.02902010       0.11574700
H        0.00000000       0.00000000       0.05653800
H        1.69400170      -0.29562360      -0.67242250
H        1.63142410       0.73331990       0.52840650
10
Properties=species:S:1:pos:R:3 name=" H3OpH2O2 " energy_kcal_mol=57.114 smiles=O.O.O.[H] pbc="F F F"
O        0.42771170       0.16719460       2.09948910
H        0.91022250      -0.51373640       2.58098700
H        0.20266310       0.86880280       2.72113740
O        0.42771170       0.16719460      -2.09948910
H        0.91022250      -0.51373640      -2.58098700
H        0.20266310       0.86880280      -2.72113740
O       -0.89266660      -0.10707200       0.00000000
H       -0.34091520      -0.04213130       0.88069070
H       -0.34091520      -0.04213130      -0.88069070
H       -1.50669750      -0.85318750       0.00000000
13
Properties=species:S:1:pos:R:3 name=" H3OpH2O3 " energy_kcal_mol=76.755 smiles=O.O.O.O.[H] pbc="F F F"
O        0.44885520       2.45066090      -0.11283800
H        0.53656450       3.10823640       0.58583670
H        0.95873670       2.76786080      -0.86572500
O       -2.34676220      -0.83661050      -0.11283800
H       -2.87640610      -0.55364000      -0.86572500
H       -2.96009390      -1.08943970       0.58583670
O        1.89790700      -1.61405050      -0.11283800
H        2.42352940      -2.01879660       0.58583670
H        1.91766940      -2.21422070      -0.86572500
O        0.00000000       0.00000000       0.49803720
H        0.72067380      -0.65864520       0.22671390
H        0.21006660       0.95344440       0.22671390
H       -0.93074030      -0.29479920       0.22671390
22
Properties=species:S:1:pos:R:3 name=" H3OpH2O63d " energy_kcal_mol=117.683 smiles=O.O.O.O.O.O.O.[H] pbc="F F F"
O       -0.80170390      -2.17861430       1.16192040
H       -0.95017540      -2.07898030       0.20314050
H       -1.48591530      -2.75130270       1.52090010
O        1.65205570       0.04771590      -1.55913260
H        2.33132210       0.01944600      -2.24180550
H        1.08637030      -0.73317990      -1.69157530
O       -0.78470470      -1.45458010      -1.55913260
H       -1.14882030      -2.02870720      -2.24180550
H       -1.17813750      -0.57423430      -1.69157530
O        2.28758720       0.39501120       1.16192040
H        2.27553740       0.21661410       0.20314050
H        3.12565570       0.08881100       1.52090010
O       -1.48588330       1.78360310       1.16192040
H       -1.63974040       2.66249170       1.52090010
H       -1.32536200       1.86236610       0.20314050
O       -0.86735100       1.40686430      -1.55913260
H       -1.18250180       2.00926110      -2.24180550
H        0.09176720       1.30741420      -1.69157530
O        0.00000000       0.00000000       2.22114510
H       -0.36183100      -0.88486680       1.86617060
H        0.94723260       0.12907860       1.86617060
H       -0.58540160       0.75578820       1.86617060
22
Properties=species:S:1:pos:R:3 name=" H3OpH2O62d " energy_kcal_mol=114.819 smiles=O.O.O.O.O.[H].O.O pbc="F F F"
O        1.84341330      -0.95960030      -1.48677180
H        1.26567360      -0.73912310      -2.23491780
O        1.07933050      -0.52718540       1.02820080
H        1.40192840      -0.70178310       0.10699930
O        0.00000000       0.00000000      -3.51189960
O       -1.84341330       0.95960030      -1.48677180
H       -1.26567360       0.73912310      -2.23491780
O       -1.07933050       0.52718540       1.02820080
H       -1.40192840       0.70178310       0.10699930
H        0.00000000       0.00000000       1.03344700
H       -2.36667600       1.72447260      -1.74182060
H        2.36667600      -1.72447260      -1.74182060
H       -1.77001610       0.03354960       1.53153110
H        1.77001610      -0.03354960       1.53153110
O       -2.99141180      -0.72410800       2.44248190
O        2.99141180       0.72410800       2.44248190
H        0.43342180       0.63655490      -4.09403920
H       -0.43342180      -0.63655490      -4.09403920
H       -3.17979160      -1.66531360       2.50114090
H       -3.43526880      -0.30590620       3.18642170
H        3.43526880       0.30590620       3.18642170
H        3.17979160       1.66531360       2.50114090
5
Properties=species:S:1:pos:R:3 name=" OHmH2O " energy_kcal_mol=26.687 smiles=O.[OH] pbc="F F F"
H       -0.09138830      -0.24481280       0.01308260
H        1.52727330       0.33831210       0.65255430
O       -1.22083780      -0.23561820       0.06131470
O        1.24621320      -0.22061100      -0.07713810
H       -1.46126040       0.36272990      -0.64981350
8
Properties=species:S:1:pos:R:3 name=" OHmH2O2 " energy_kcal_mol=48.688 smiles=O.[OH].O pbc="F F F"
H       -1.45795870       0.00408430       0.02445940
O       -2.42912040       0.07330550      -0.32631510
H        0.00000000       0.00000000       1.48136830
H       -2.45649860       0.95674360      -0.69941700
O        0.00000000       0.00000000       0.52117710
H        1.45795870      -0.00408430       0.02445940
O        2.42912040      -0.07330550      -0.32631510
H        2.45649860      -0.95674360      -0.69941700
11
Properties=species:S:1:pos:R:3 name=" OHmH2O3 " energy_kcal_mol=67.525 smiles=O.O.[OH].O pbc="F F F"
H        1.83052030      -1.89684620      -0.69396280
O        2.20228790      -1.15195450      -0.21661420
H        1.38056320      -0.68485640       0.15030980
H        0.00000000       0.00000000       1.62059290
H       -0.09717860       1.53803100       0.15030980
H        0.72745690       2.53370020      -0.69396280
O       -0.10352210       2.48321450      -0.21661420
O        0.00000000       0.00000000       0.66020860
H       -1.28338460      -0.85317460       0.15030980
O       -2.09876580      -1.33126000      -0.21661420
H       -2.55797720      -0.63685400      -0.69396280
14
Properties=species:S:1:pos:R:3 name=" OHmH2O4c4 " energy_kcal_mol=84.351 smiles=[OH].O.O.O.O pbc="F F F"
H       -0.02679180       1.58182510       0.28342490
H        1.58182510       0.02679180       0.28342490
H        0.02679180      -1.58182510       0.28342490
H       -1.58182510      -0.02679180       0.28342490
O        0.00000000       0.00000000       0.95789990
H        0.00000000       0.00000000       1.91770350
O        0.03141990       2.41856640      -0.25299050
O        2.41856640      -0.03141990      -0.25299050
O       -0.03141990      -2.41856640      -0.25299050
O       -2.41856640       0.03141990      -0.25299050
H        0.84304800       2.27852250      -0.74933530
H        2.27852250      -0.84304800      -0.74933530
H       -0.84304800      -2.27852250      -0.74933530
H       -2.27852250       0.84304800      -0.74933530
14
Properties=species:S:1:pos:R:3 name=" OHmH2O4cs " energy_kcal_mol=85.015 smiles=O.[OH].O.O.O pbc="F F F"
O        0.79412680      -0.15804950       2.06603930
O       -0.02659900      -1.46862550       0.00000000
H        0.85354370       1.31756800       0.76326950
H       -0.04920920       0.05568790       2.47385620
O        0.70601960       1.90610930       0.00000000
H        0.85354370       1.31756800      -0.76326950
O        0.79412680      -0.15804950      -2.06603930
H       -0.04920920       0.05568790      -2.47385620
H        0.52530290      -0.76678110      -1.28987420
O       -2.03773010       0.39058880       0.00000000
H       -1.39115330       1.10999290       0.00000000
H       -1.45458470      -0.40795530       0.00000000
H        0.52530290      -0.76678110       1.28987420
H       -0.04348090      -2.42696090       0.00000000
17
Properties=species:S:1:pos:R:3 name=" OHmH2O5 " energy_kcal_mol=100.782 smiles=O.O.O.O.[OH].O pbc="F F F"
H        1.50127740      -0.38819870      -0.06874430
H        0.06954500      -2.00314500      -0.09369740
H       -1.29748690      -0.37585350       0.32073600
O        0.09399220       1.97496630      -1.17023090
O        1.93702040      -0.24345790      -0.95357260
O       -0.15552320      -2.51344600      -0.91074030
O       -1.96169240      -0.06001970      -0.32893190
H        0.77571860       1.28241860      -1.26504830
H        1.56148740      -0.97224900      -1.46276960
H       -0.94870130      -2.04871430      -1.20363860
H       -1.47182320       0.63369370      -0.79979620
O        0.33300520      -0.71843590       1.14008610
H        0.55492340      -1.18901870       1.94655940
O       -0.11241130       1.81908780       1.73421480
H        0.08451760       2.13409830      -0.20916160
H       -1.07360080       1.82259000       1.74831540
H        0.10975180       0.84568400       1.57641990
20
Properties=species:S:1:pos:R:3 name=" OHmH2O6 " energy_kcal_mol=115.672 smiles=O.O.O.O.O.O.[OH] pbc="F F F"
O        0.23099660      -1.75016030      -1.61373180
H        0.35477040      -1.42686520      -2.50951980
H       -0.48635990      -1.15118690      -1.22476790
O       -0.81872770      -1.80962570       1.52573340
H       -0.32477370      -2.46232930       1.02128580
H       -1.16948890      -1.19087340       0.81762240
O       -0.93563090       2.06312180       1.05591690
H       -1.28261680       1.25422900       0.59735670
H       -0.44029530       2.47874940       0.33729930
O        1.03463870       0.30623620       2.18886640
H        0.47236160      -0.48812860       2.12201770
H        0.42328680       1.02268810       1.92836410
O        0.26565420       1.73743710      -1.68238170
H        1.07155760       1.31718560      -1.33580430
H       -0.43730170       1.11679950      -1.39606020
O        2.27037380      -0.02032580      -0.40017940
H        1.95744430       0.10706270       0.51732170
H        1.69198000      -0.71857520      -0.75398030
O       -1.48542860      -0.14459150      -0.44782020
H       -2.39244050      -0.24084770      -0.74753860
24
Properties=species:S:1:pos:R:3 name=" H3OpH2O6OHm " energy_kcal_mol=29.605 smiles=O.O.O.O.O.[OH].O.O.[H] pbc="F F F"
O       -1.29245230       1.94314230       1.22264970
O        0.00000000       0.00000000       2.19101800
O        2.32903670       0.14772540       1.22264970
O       -1.03658440      -2.09086770       1.22264970
O       -0.11737380      -2.36663960      -1.18114660
O        0.00000000       0.00000000      -2.12815000
O        2.10825690       1.08167110      -1.18114660
O       -1.99088310       1.28496850      -1.18114660
H       -1.61213320       1.71080410       0.29022610
H       -2.03299210       2.32680880       1.69771450
H       -2.74718360       0.69698760      -1.24469790
H       -0.99857950      -2.92402720       1.69771450
H       -0.67553320      -2.25155030       0.29022610
H       -1.20364680       0.77463150      -1.60910000
H       -0.55754330       0.79063100       1.83294160
H       -0.40593490      -0.87816220       1.83294160
H        1.97720080       2.03063700      -1.24469790
H       -0.06902720      -1.42970450      -1.60910000
H        0.96347820       0.08753120       1.83294160
H        0.76998280      -2.72762460      -1.24469790
H        0.00000000       0.00000000      -3.08863030
H        1.27267400       0.65507290      -1.60910000
H        3.03157160       0.59721830       1.69771450
H        2.28766640       0.54074630       0.29022610
