6
name=" H2O2 " energy_kcal_mol=4.974
O    -1.3305065    0.9990741    0.0000000 
H    -1.0635455    1.9210871    0.0000000 
H    -0.5051326    0.4919421    0.0000000 
O     1.0052144   -0.7512682    0.0000000 
H     0.9469851   -1.3304176   -0.7655752 
H     0.9469851   -1.3304176    0.7655752 
9
name=" H2O3 " energy_kcal_mol=15.708
O     1.1847029    1.1150792   -0.0344641 
H     0.4939088    0.9563767    0.6340089 
H     2.0242676    1.0811246    0.4301417 
O    -1.1469443    0.0697649    1.1470196 
H    -1.2798308   -0.5232169    1.8902833 
H    -1.0641398   -0.4956693    0.3569250 
O    -0.1633508   -1.0289346   -1.2401808 
H     0.4914771   -0.3248733   -1.0784838 
H    -0.5400907   -0.8496512   -2.1052499 
12
name=" H2O4 " energy_kcal_mol=27.353
O    -1.4564924    1.2872093   -0.0073689 
H    -0.4929670    1.4796927   -0.0098606 
H    -1.8194199    1.7493731    0.7521436 
O    -1.2872093   -1.4564924    0.0073689 
H    -1.4796927   -0.4929670    0.0098606 
H    -1.7493731   -1.8194199   -0.7521436 
O     1.4564924   -1.2872093   -0.0073689 
H     0.4929670   -1.4796927   -0.0098606 
H     1.8194199   -1.7493731    0.7521436 
O     1.2872093    1.4564924    0.0073689 
H     1.4796927    0.4929670    0.0098606 
H     1.7493731    1.8194199   -0.7521436 
15
name=" H2O5 " energy_kcal_mol=35.879
O    -1.1268024   -1.5421147    1.3115375 
H    -0.7661903   -2.0208888    2.0619128 
H    -1.0425473   -0.5875811    1.5375504 
O     0.0803781   -2.0408214   -1.0866271 
H    -0.5297873   -2.5676517   -1.6076619 
H    -0.3615744   -1.8901965   -0.2198678 
O     0.8653564    2.1577269   -0.0051264 
H     0.9896838    1.5118344   -0.7375001 
H     1.7477174    2.4024394    0.2841736 
O    -0.7980209    1.1055424    1.8833964 
H    -0.1925383    1.5158527    1.2242825 
H    -1.5800472    1.6620636    1.9082724 
O     1.1675335    0.3103577   -1.9923084 
H     0.7679385    0.5364348   -2.8354387 
H     0.7789005   -0.5529975   -1.7265952 
18
name=" H2O6 " energy_kcal_mol=45.988
O     1.4282580   -0.4003671    1.4106584 
H     0.4962869   -0.7311723    1.5266043 
H     1.9346614   -0.7027163    2.1682760 
O     0.7372918    1.9893172   -0.0695132 
H     1.0637087    1.4457976    0.6652451 
H     1.0989464    1.5385980   -0.8448107 
O     1.6255509   -0.5260892   -1.3633321 
H     2.3546166   -0.9528444   -1.8202670 
H     1.7656466   -0.6667515   -0.4068662 
O    -1.9174627    1.2454847   -0.0758847 
H    -1.0195282    1.6453398   -0.0861304 
H    -2.5435506    1.9684754   -0.1615432 
O    -1.2037871   -1.3111993   -1.3774110 
H    -0.2717808   -1.1292498   -1.5755794 
H    -1.6090141   -0.4363975   -1.2823355 
O    -1.1315777   -1.1588986    1.4243135 
H    -1.1917048   -1.4941891    0.5062038 
H    -1.6165614   -0.3231376    1.3623725 
18
name=" H2O6c " energy_kcal_mol=45.733
O    -2.1262430    0.9197498    1.8264958 
H    -2.1881222    1.4620146    2.6158476 
H    -1.5986358    1.4265182    1.1737716 
O    -0.6242004   -1.3533166    1.1757103 
H    -1.1988054   -0.6794287    1.5877759 
H     0.2729833   -0.9963075    1.2645231 
O     1.8287624    0.1754817    0.6422639 
H     2.0392499   -0.2029455   -0.2401564 
H     2.6632512    0.2979341    1.1013749 
O    -0.8422995   -0.8438539   -1.4490439 
H    -1.5454762   -1.3161820   -1.9016515 
H    -0.8613423   -1.1366364   -0.4986366 
O    -0.4537151    1.8328264   -0.1915392 
H    -0.7281657    1.1638105   -0.8364546 
H     0.4013688    1.5054304    0.1303423 
O     1.8922043   -0.9099854   -1.8706972 
H     2.1537551   -0.3720142   -2.6222492 
H     0.9154307   -0.9730955   -1.9076768 
18
name=" H2O6b " energy_kcal_mol=45.292
O     0.1144839    1.5112333    0.8435130 
H     0.9588057    1.4715580    0.3295002 
H     0.2612910    2.1241091    1.5685011 
O    -0.0281704   -1.4370823    0.9851182 
H    -0.0383127   -0.4862320    1.1718938 
H    -0.8642499   -1.5983938    0.5055884 
O    -2.3537981    1.3280181   -0.4618208 
H    -1.4871423    1.5019404   -0.0453109 
H    -2.3472534    1.7941650   -1.3012567 
O    -2.4676711   -1.4576027   -0.4185461 
H    -2.5397542   -0.4850372   -0.4964169 
H    -3.2602900   -1.7456420    0.0408062 
O     2.4264495    1.1481600   -0.4958637 
H     2.4838349    0.1618456   -0.5091494 
H     2.5261922    1.4338488   -1.4071863 
O     2.2762914   -1.5490049   -0.4262672 
H     1.4225637   -1.6349539    0.0649769 
H     2.9167296   -2.0809295    0.0519201 
18
name=" H2O6c2 " energy_kcal_mol=44.296
O     1.8630162    1.9699095    0.1190794 
H     0.9056974    2.1787084    0.0238760 
H     2.1523045    2.4204188    0.9160640 
O     0.7744836   -2.5983741    0.1190794 
H     1.0199919   -3.0741598    0.9160640 
H     1.4339681   -1.8737112    0.0238760 
O     2.6374998   -0.6284646   -0.1190794 
H     2.3396656    0.3049972   -0.0238760 
H     3.1722964   -0.6537410   -0.9160640 
O    -1.8630162   -1.9699095   -0.1190794 
H    -2.1523045   -2.4204188   -0.9160640 
H    -0.9056974   -2.1787084   -0.0238760 
O    -0.7744836    2.5983741   -0.1190794 
H    -1.0199919    3.0741598   -0.9160640 
H    -1.4339681    1.8737112   -0.0238760 
O    -2.6374998    0.6284646    0.1190794 
H    -3.1722964    0.6537410    0.9160640 
H    -2.3396656   -0.3049972    0.0238760 
24
name=" H2O8d2d " energy_kcal_mol=72.490
O    -1.4645552   -1.4645552    1.3497067 
O    -1.4645552    1.4645552   -1.3497067 
O     1.4645552   -1.4645552   -1.3497067 
O     1.4645552    1.4645552    1.3497067 
H    -1.5346654   -1.5346654    0.3622554 
H    -1.5346654    1.5346654   -0.3622554 
H     1.5346654   -1.5346654   -0.3622554 
H     1.5346654    1.5346654    0.3622554 
H    -2.0896636   -2.0896636    1.7251112 
H    -2.0896636    2.0896636   -1.7251112 
H     2.0896636   -2.0896636   -1.7251112 
H     2.0896636    2.0896636    1.7251112 
O    -1.4052886   -1.4052886   -1.3390082 
O    -1.4052886    1.4052886    1.3390082 
O     1.4052886   -1.4052886    1.3390082 
O     1.4052886    1.4052886   -1.3390082 
H    -1.5526158   -0.4620645   -1.5268989 
H    -1.5526158    0.4620645    1.5268989 
H     1.5526158   -0.4620645    1.5268989 
H    -0.4620645   -1.5526158   -1.5268989 
H     0.4620645    1.5526158   -1.5268989 
H     0.4620645   -1.5526158    1.5268989 
H    -0.4620645    1.5526158    1.5268989 
H     1.5526158    0.4620645   -1.5268989 
24
name=" H2O8s4 " energy_kcal_mol=72.454
O     1.9905911   -0.1084003   -1.4652291 
H     1.3302928   -0.8467868   -1.5304519 
H     2.7035395   -0.3103452   -2.0762400 
O    -0.1084003   -1.9905911    1.4652291 
H    -0.3103452   -2.7035395    2.0762400 
H    -0.8467868   -1.3302928    1.5304519 
O    -1.9387532   -0.0255756    1.4016092 
H    -2.1724666    0.0263608    0.4583695 
H    -1.3988240    0.7670441    1.5644647 
O     0.0255756   -1.9387532   -1.4016092 
H    -0.0263608   -2.1724666   -0.4583695 
H    -0.7670441   -1.3988240   -1.5644647 
O    -0.0255756    1.9387532   -1.4016092 
H     0.7670441    1.3988240   -1.5644647 
H     0.0263608    2.1724666   -0.4583695 
O     0.1084003    1.9905911    1.4652291 
H     0.8467868    1.3302928    1.5304519 
H     0.3103452    2.7035395    2.0762400 
O    -1.9905911    0.1084003   -1.4652291 
H    -1.3302928    0.8467868   -1.5304519 
H    -2.7035395    0.3103452   -2.0762400 
O     1.9387532    0.0255756    1.4016092 
H     2.1724666   -0.0263608    0.4583695 
H     1.3988240   -0.7670441    1.5644647 
60
name=" H2O20 " energy_kcal_mol=197.804
O     1.5972952    3.6342929    0.1165628 
O     3.4570031    1.5457807    0.8715044 
O    -0.5742400    3.4889560    1.7956375 
O     0.6295601    2.9030991   -2.4803288 
O     2.5628870    0.2380423    2.9758015 
O    -0.0061254    1.3030904    3.6250687 
O     3.6694758   -0.1920224   -1.2507983 
O    -2.6588176    2.7244506    0.3711345 
O     1.9365179    0.5910602   -3.3888087 
O    -1.9819526    2.4899264   -2.3389977 
O     2.0356643   -2.4018164    2.1787274 
O    -1.8845792   -0.6687213    3.2997576 
O     2.7932149   -2.7984187   -0.3020458 
O    -3.7135037    0.2090327    1.2262852 
O     0.1062725   -1.2932810   -3.6485737 
O    -2.3812958   -0.2589936   -3.0530727 
O    -0.7279685   -2.9024551    2.5515924 
O     0.5941514   -3.4611530   -1.7841290 
O    -3.4834248   -1.6651538   -0.7602100 
O    -1.6647964   -3.4265588   -0.0388993 
H     0.8366572    3.6498000    0.7406949 
H     1.9869746    4.5126507    0.1363602 
H     2.8531582    2.2552477    0.5991012 
H     3.5564427    0.9528663    0.0924970 
H    -0.8603460    4.2574733    2.2971151 
H    -1.3676155    3.1980612    1.2597142 
H     1.0058172    3.1354291   -1.6140348 
H     1.1176189    2.1179309   -2.7977873 
H     3.2218852    0.3339645    3.6687595 
H     2.9173110    0.7362370    2.1825883 
H     0.8868802    0.9703910    3.4227382 
H    -0.1583775    2.0479994    3.0212474 
H     3.3730831   -1.0735747   -0.9715290 
H     3.1050897    0.0539960   -2.0051350 
H    -2.4656562    2.6610551   -0.5848248 
H    -3.0302259    1.8642237    0.6349499 
H     1.2448937   -0.1226649   -3.5032296 
H     2.3685947    0.6844400   -4.2421884 
H    -2.3988056    3.1036186   -2.9499344 
H    -0.9990854    2.6509609   -2.4091562 
H     1.0894130   -2.5673533    2.3485271 
H     2.2199554   -1.4937765    2.4901053 
H    -2.5067142   -0.3437261    2.6291954 
H    -1.2285821    0.0523333    3.4406625 
H     3.5521661   -3.3866115   -0.2562954 
H     2.5019631   -2.6479144    0.6464344 
H    -4.6222885    0.2638838    1.5345724 
H    -3.6996256   -0.4725780    0.5153993 
H     0.2511880   -2.0333038   -3.0373170 
H    -0.7962964   -0.9523111   -3.4593251 
H    -2.2861386    0.6788768   -2.8115617 
H    -2.7753977   -0.6983972   -2.2822631 
H    -0.9190239   -3.5594960    3.2264945 
H    -1.1717496   -2.0542602    2.8528846 
H     0.7227644   -4.3091097   -2.2179802 
H     1.4210061   -3.2760638   -1.2803666 
H    -4.2486672   -2.1741634   -1.0420466 
H    -2.7907220   -2.3358781   -0.4884945 
H    -0.8844205   -3.4528625   -0.6209771 
H    -1.3284624   -3.2865515    0.8681973 
60
name=" H2O20fc " energy_kcal_mol=207.534
O    -0.0040675    1.9370846   -5.6837488 
O    -2.0081019   -0.1385428   -5.7351775 
O    -0.1385428    2.0081019    5.7351775 
O    -1.9370846   -0.0040675    5.6837488 
O    -1.9737684    0.0227542    2.8081295 
O     1.9737684   -0.0227542    2.8081295 
O    -1.9687741    0.0215608   -2.8939543 
O     1.9687741   -0.0215608   -2.8939543 
O     0.0040675   -1.9370846   -5.6837488 
O     2.0081019    0.1385428   -5.7351775 
O     0.1385428   -2.0081019    5.7351775 
O     1.9370846    0.0040675    5.6837488 
O     1.9809313    0.0891778   -0.0443893 
O     0.0227542    1.9737684   -2.8081295 
O     0.0215608    1.9687741    2.8939543 
O    -0.0215608   -1.9687741    2.8939543 
O    -0.0891778    1.9809313    0.0443893 
O     0.0891778   -1.9809313    0.0443893 
O    -0.0227542   -1.9737684   -2.8081295 
O    -1.9809313   -0.0891778   -0.0443893 
H    -0.7953230    1.3838243   -5.8038110 
H    -0.0529878    2.2533470   -4.7672247 
H    -1.3302275   -0.8605673   -5.7890316 
H    -2.6672294   -0.3202269   -6.4099495 
H    -0.3202269    2.6672294    6.4099495 
H    -0.8605673    1.3302275    5.7890316 
H    -1.3838243   -0.7953230    5.8038110 
H    -2.2533470   -0.0529878    4.7672247 
H    -2.3675338   -0.0049056    1.9217175 
H    -1.3512621    0.7814913    2.7945978 
H     2.3675338    0.0049056    1.9217175 
H     1.3512621   -0.7814913    2.7945978 
H    -2.2931720   -0.0316149   -3.8093685 
H    -1.3496505    0.7829360   -2.8870264 
H     1.3496505   -0.7829360   -2.8870264 
H     2.2931720    0.0316149   -3.8093685 
H     0.0529878   -2.2533470   -4.7672247 
H     0.7953230   -1.3838243   -5.8038110 
H     1.3302275    0.8605673   -5.7890316 
H     2.6672294    0.3202269   -6.4099495 
H     0.8605673   -1.3302275    5.7890316 
H     0.3202269   -2.6672294    6.4099495 
H     1.3838243    0.7953230    5.8038110 
H     2.2533470    0.0529878    4.7672247 
H     1.3357225    0.8279582   -0.0422844 
H     2.3528107    0.0783222   -0.9411357 
H    -0.0049056    2.3675338   -1.9217175 
H     0.7814913    1.3512621   -2.7945978 
H     0.7829360    1.3496505    2.8870264 
H    -0.0316149    2.2931720    3.8093685 
H     0.0316149   -2.2931720    3.8093685 
H    -0.7829360   -1.3496505    2.8870264 
H    -0.8279582    1.3357225    0.0422844 
H    -0.0783222    2.3528107    0.9411357 
H     0.0783222   -2.3528107    0.9411357 
H     0.8279582   -1.3357225    0.0422844 
H     0.0049056   -2.3675338   -1.9217175 
H    -0.7814913   -1.3512621   -2.7945978 
H    -2.3528107   -0.0783222   -0.9411357 
H    -1.3357225   -0.8279582   -0.0422844 
60
name=" H2O20fs " energy_kcal_mol=207.763
O    -0.4674337   -1.4156432    2.3424832 
H    -0.5103881   -0.5327785    2.7383509 
H    -1.1543710   -1.4135419    1.6390602 
O    -1.1804953   -4.4114890   -2.0217879 
H    -1.6005951   -5.0804995   -2.5684061 
H    -1.6296589   -4.4443491   -1.1306922 
O    -0.3890822   -4.3416186    2.3649217 
H    -0.4122318   -3.4254374    2.6780297 
H     0.4954470   -4.4516812    1.9766411 
O    -2.3708270   -1.4010748    0.3317388 
H    -2.7687053   -0.5190604    0.3764393 
H    -1.9008133   -1.4312776   -0.5314561 
O    -1.0412215   -1.5773429   -2.0898648 
H    -0.0740952   -1.5478577   -1.9182976 
H    -1.2210828   -2.5028893   -2.3334269 
O     1.6403031   -4.3519848   -1.6030968 
H     0.6907637   -4.4791178   -1.7864600 
H     1.8234428   -3.4332488   -1.8548591 
O    -2.3324640   -4.3191108    0.3710663 
H    -1.6749165   -4.4161499    1.0945673 
H    -2.6633440   -3.4130595    0.4587135 
O     1.6787401   -1.4676579   -1.5895498 
H     1.8042491   -1.4683808   -0.6135222 
H     1.9691284   -0.5921861   -1.8871045 
O     2.0177788   -1.5700244    1.1457336 
H     1.1343262   -1.5367783    1.5764315 
H     2.3187166   -2.4899023    1.2541941 
O     2.1824622   -4.3930741    1.0311736 
H     2.8554348   -5.0463468    1.2384494 
H     2.0031126   -4.4627308    0.0573709 
O    -0.4152401    4.3842505    2.2876138 
H    -0.5679834    5.0653700    2.9479304 
H    -1.1127701    4.4876540    1.6038264 
O    -1.1046614    1.2760042   -2.0786808 
H    -1.2737935    0.3860585   -2.4278927 
H    -1.5421398    1.2973941   -1.1984656 
O    -0.3343417    1.4821610    2.3157837 
H     0.5348035    1.4101401    1.8606636 
H    -0.3797162    2.3986009    2.6294913 
O    -2.2749913    4.3768946    0.2339960 
H    -1.7988517    4.3462894   -0.6427551 
H    -2.9812564    5.0213482    0.1371479 
O    -0.9933823    4.1431644   -2.0843627 
H    -0.0298852    4.2701065   -2.0022747 
H    -1.1087883    3.2216193   -2.3688039 
O     1.6344386    1.3954288   -1.6918288 
H     0.6638061    1.3608461   -1.8412994 
H     1.8936812    2.3076806   -1.9040298 
O    -2.3215084    1.4785163    0.3929266 
H    -2.6250091    2.4001087    0.3878313 
H    -1.6192612    1.4525318    1.0812056 
O     1.8145415    4.2491098   -1.6499360 
H     2.4020909    4.8900295   -2.0585139 
H     1.9809374    4.2843100   -0.6721155 
O     2.1692949    4.1320169    1.0124794 
H     2.3810198    3.2011114    1.1933550 
H     1.3372868    4.3008339    1.4866278 
O     2.0958108    1.2695995    1.0227267 
H     2.4183264    0.3768526    1.2284758 
H     1.9353623    1.2702628    0.0520364 
60
name=" H2O20es " energy_kcal_mol=209.081
O     1.4449507   -2.3192362    1.3852172 
H     0.9523409   -1.4842602    1.5288696 
H     2.3694569   -2.1139495    1.6116655 
O     1.4198689   -2.4626094   -1.4007113 
H     1.4412349   -2.4945724   -0.4194091 
H     0.7771617   -3.1468464   -1.6575718 
O     0.0068371    0.0172196    1.4027157 
H     0.3893324    0.9065634    1.5625403 
H    -0.9609503    0.0503272    1.5609821 
O    -2.7367283   -0.0717073    1.3588421 
H    -2.7881947   -0.0946107    0.3779034 
H    -2.9785985   -0.9717563    1.6413949 
O     4.0454641    1.4627919   -1.4612681 
H     4.7881071    1.7639854   -1.9912934 
H     4.0333238    0.4731882   -1.5313495 
O    -1.0008037    4.2249605    1.4982864 
H    -1.1521890    5.0082615    2.0335617 
H    -1.8328395    3.6856129    1.5416327 
O    -3.2272404    2.7492225   -1.5453255 
H    -3.8412573    3.2117349   -2.1217880 
H    -2.3703373    3.2485931   -1.5888707 
O     0.0615460   -0.0608668   -1.3504788 
H     0.5404095   -0.8892136   -1.5688996 
H     0.0525024   -0.0517312   -0.3661063 
O     1.3505765    2.3624375   -1.4255501 
H     2.2943427    2.2180386   -1.6165285 
H     0.9255618    1.4877943   -1.5595341 
O     4.0797114   -1.2705898    1.5101742 
H     4.8184302   -1.5307198    2.0667554 
H     4.0088205   -0.2833084    1.5792807 
O    -0.9118416    4.1146840   -1.3968277 
H    -0.8699572    4.3289684   -0.4493559 
H    -0.0897473    3.6305502   -1.5859742 
O    -2.6850195   -0.0424816   -1.4274401 
H    -2.9831436    0.8560006   -1.6562177 
H    -1.7132338   -0.0438086   -1.5635337 
O    -3.1295491   -2.8665515   -1.3299376 
H    -3.1140901   -1.9191429   -1.5480976 
H    -3.3032413   -2.9025862   -0.3736924 
O     1.2244340    2.4780105    1.3595377 
H     0.5812433    3.1657978    1.6076146 
H     1.2728430    2.5161003    0.3793006 
O    -0.8128130   -4.2331318   -1.5239325 
H    -0.9466607   -5.0213678   -2.0566534 
H    -1.6633690   -3.7232425   -1.5543692 
O    -3.2498861    2.7544587    1.3479831 
H    -3.1924627    1.8120206    1.5790401 
H    -3.4347595    2.7666931    0.3928574 
O     4.0373837   -1.2313563   -1.3812425 
H     3.2335259   -1.7195098   -1.6240819 
H     4.1604036   -1.4012254   -0.4312943 
O    -3.0940150   -2.8851180    1.5661544 
H    -2.2180185   -3.3510614    1.5943976 
H    -3.6898242   -3.3867826    2.1285951 
O    -0.7332536   -4.1659349    1.3697764 
H     0.0709231   -3.6538397    1.5619151 
H    -0.6879895   -4.3597798    0.4176959 
O     3.9098072    1.4164687    1.4257218 
H     3.0660482    1.8495739    1.6367710 
H     4.0554225    1.5928403    0.4801529 
7
name=" H3OpH2O " energy_kcal_mol=33.738
O    -1.1997281    0.0290201    0.1157470 
H    -1.6314241   -0.7333199    0.5284065 
H    -1.6940017    0.2956236   -0.6724225 
O     1.1997281   -0.0290201    0.1157470 
H     0.0000000    0.0000000    0.0565380 
H     1.6940017   -0.2956236   -0.6724225 
H     1.6314241    0.7333199    0.5284065 
10
name=" H3OpH2O2 " energy_kcal_mol=57.114
O     0.4277117    0.1671946    2.0994891 
H     0.9102225   -0.5137364    2.5809870 
H     0.2026631    0.8688028    2.7211374 
O     0.4277117    0.1671946   -2.0994891 
H     0.9102225   -0.5137364   -2.5809870 
H     0.2026631    0.8688028   -2.7211374 
O    -0.8926666   -0.1070720    0.0000000 
H    -0.3409152   -0.0421313    0.8806907 
H    -0.3409152   -0.0421313   -0.8806907 
H    -1.5066975   -0.8531875    0.0000000 
13
name=" H3OpH2O3 " energy_kcal_mol=76.755
O     0.4488552    2.4506609   -0.1128380 
H     0.5365645    3.1082364    0.5858367 
H     0.9587367    2.7678608   -0.8657250 
O    -2.3467622   -0.8366105   -0.1128380 
H    -2.8764061   -0.5536400   -0.8657250 
H    -2.9600939   -1.0894397    0.5858367 
O     1.8979070   -1.6140505   -0.1128380 
H     2.4235294   -2.0187966    0.5858367 
H     1.9176694   -2.2142207   -0.8657250 
O     0.0000000    0.0000000    0.4980372 
H     0.7206738   -0.6586452    0.2267139 
H     0.2100666    0.9534444    0.2267139 
H    -0.9307403   -0.2947992    0.2267139 
22
name=" H3OpH2O63d " energy_kcal_mol=117.683
O    -0.8017039   -2.1786143    1.1619204 
H    -0.9501754   -2.0789803    0.2031405 
H    -1.4859153   -2.7513027    1.5209001 
O     1.6520557    0.0477159   -1.5591326 
H     2.3313221    0.0194460   -2.2418055 
H     1.0863703   -0.7331799   -1.6915753 
O    -0.7847047   -1.4545801   -1.5591326 
H    -1.1488203   -2.0287072   -2.2418055 
H    -1.1781375   -0.5742343   -1.6915753 
O     2.2875872    0.3950112    1.1619204 
H     2.2755374    0.2166141    0.2031405 
H     3.1256557    0.0888110    1.5209001 
O    -1.4858833    1.7836031    1.1619204 
H    -1.6397404    2.6624917    1.5209001 
H    -1.3253620    1.8623661    0.2031405 
O    -0.8673510    1.4068643   -1.5591326 
H    -1.1825018    2.0092611   -2.2418055 
H     0.0917672    1.3074142   -1.6915753 
O     0.0000000    0.0000000    2.2211451 
H    -0.3618310   -0.8848668    1.8661706 
H     0.9472326    0.1290786    1.8661706 
H    -0.5854016    0.7557882    1.8661706 
22
name=" H3OpH2O62d " energy_kcal_mol=114.819
O     1.8434133   -0.9596003   -1.4867718 
H     1.2656736   -0.7391231   -2.2349178 
O     1.0793305   -0.5271854    1.0282008 
H     1.4019284   -0.7017831    0.1069993 
O     0.0000000    0.0000000   -3.5118996 
O    -1.8434133    0.9596003   -1.4867718 
H    -1.2656736    0.7391231   -2.2349178 
O    -1.0793305    0.5271854    1.0282008 
H    -1.4019284    0.7017831    0.1069993 
H     0.0000000    0.0000000    1.0334470 
H    -2.3666760    1.7244726   -1.7418206 
H     2.3666760   -1.7244726   -1.7418206 
H    -1.7700161    0.0335496    1.5315311 
H     1.7700161   -0.0335496    1.5315311 
O    -2.9914118   -0.7241080    2.4424819 
O     2.9914118    0.7241080    2.4424819 
H     0.4334218    0.6365549   -4.0940392 
H    -0.4334218   -0.6365549   -4.0940392 
H    -3.1797916   -1.6653136    2.5011409 
H    -3.4352688   -0.3059062    3.1864217 
H     3.4352688    0.3059062    3.1864217 
H     3.1797916    1.6653136    2.5011409 
5
name=" OHmH2O " energy_kcal_mol=26.687
H    -0.0913883   -0.2448128    0.0130826 
H     1.5272733    0.3383121    0.6525543 
O    -1.2208378   -0.2356182    0.0613147 
O     1.2462132   -0.2206110   -0.0771381 
H    -1.4612604    0.3627299   -0.6498135 
8
name=" OHmH2O2 " energy_kcal_mol=48.688
H    -1.4579587    0.0040843    0.0244594 
O    -2.4291204    0.0733055   -0.3263151 
H     0.0000000    0.0000000    1.4813683 
H    -2.4564986    0.9567436   -0.6994170 
O     0.0000000    0.0000000    0.5211771 
H     1.4579587   -0.0040843    0.0244594 
O     2.4291204   -0.0733055   -0.3263151 
H     2.4564986   -0.9567436   -0.6994170 
11
name=" OHmH2O3 " energy_kcal_mol=67.525
H     1.8305203   -1.8968462   -0.6939628 
O     2.2022879   -1.1519545   -0.2166142 
H     1.3805632   -0.6848564    0.1503098 
H     0.0000000    0.0000000    1.6205929 
H    -0.0971786    1.5380310    0.1503098 
H     0.7274569    2.5337002   -0.6939628 
O    -0.1035221    2.4832145   -0.2166142 
O     0.0000000    0.0000000    0.6602086 
H    -1.2833846   -0.8531746    0.1503098 
O    -2.0987658   -1.3312600   -0.2166142 
H    -2.5579772   -0.6368540   -0.6939628 
14
name=" OHmH2O4c4 " energy_kcal_mol=84.351
H    -0.0267918    1.5818251    0.2834249 
H     1.5818251    0.0267918    0.2834249 
H     0.0267918   -1.5818251    0.2834249 
H    -1.5818251   -0.0267918    0.2834249 
O     0.0000000    0.0000000    0.9578999 
H     0.0000000    0.0000000    1.9177035 
O     0.0314199    2.4185664   -0.2529905 
O     2.4185664   -0.0314199   -0.2529905 
O    -0.0314199   -2.4185664   -0.2529905 
O    -2.4185664    0.0314199   -0.2529905 
H     0.8430480    2.2785225   -0.7493353 
H     2.2785225   -0.8430480   -0.7493353 
H    -0.8430480   -2.2785225   -0.7493353 
H    -2.2785225    0.8430480   -0.7493353 
14
name=" OHmH2O4cs " energy_kcal_mol=85.015
O     0.7941268   -0.1580495    2.0660393 
O    -0.0265990   -1.4686255    0.0000000 
H     0.8535437    1.3175680    0.7632695 
H    -0.0492092    0.0556879    2.4738562 
O     0.7060196    1.9061093    0.0000000 
H     0.8535437    1.3175680   -0.7632695 
O     0.7941268   -0.1580495   -2.0660393 
H    -0.0492092    0.0556879   -2.4738562 
H     0.5253029   -0.7667811   -1.2898742 
O    -2.0377301    0.3905888    0.0000000 
H    -1.3911533    1.1099929    0.0000000 
H    -1.4545847   -0.4079553    0.0000000 
H     0.5253029   -0.7667811    1.2898742 
H    -0.0434809   -2.4269609    0.0000000 
17
name=" OHmH2O5 " energy_kcal_mol=100.782
H     1.5012774   -0.3881987   -0.0687443 
H     0.0695450   -2.0031450   -0.0936974 
H    -1.2974869   -0.3758535    0.3207360 
O     0.0939922    1.9749663   -1.1702309 
O     1.9370204   -0.2434579   -0.9535726 
O    -0.1555232   -2.5134460   -0.9107403 
O    -1.9616924   -0.0600197   -0.3289319 
H     0.7757186    1.2824186   -1.2650483 
H     1.5614874   -0.9722490   -1.4627696 
H    -0.9487013   -2.0487143   -1.2036386 
H    -1.4718232    0.6336937   -0.7997962 
O     0.3330052   -0.7184359    1.1400861 
H     0.5549234   -1.1890187    1.9465594 
O    -0.1124113    1.8190878    1.7342148 
H     0.0845176    2.1340983   -0.2091616 
H    -1.0736008    1.8225900    1.7483154 
H     0.1097518    0.8456840    1.5764199 
20
name=" OHmH2O6 " energy_kcal_mol=115.672
O     0.2309966   -1.7501603   -1.6137318 
H     0.3547704   -1.4268652   -2.5095198 
H    -0.4863599   -1.1511869   -1.2247679 
O    -0.8187277   -1.8096257    1.5257334 
H    -0.3247737   -2.4623293    1.0212858 
H    -1.1694889   -1.1908734    0.8176224 
O    -0.9356309    2.0631218    1.0559169 
H    -1.2826168    1.2542290    0.5973567 
H    -0.4402953    2.4787494    0.3372993 
O     1.0346387    0.3062362    2.1888664 
H     0.4723616   -0.4881286    2.1220177 
H     0.4232868    1.0226881    1.9283641 
O     0.2656542    1.7374371   -1.6823817 
H     1.0715576    1.3171856   -1.3358043 
H    -0.4373017    1.1167995   -1.3960602 
O     2.2703738   -0.0203258   -0.4001794 
H     1.9574443    0.1070627    0.5173217 
H     1.6919800   -0.7185752   -0.7539803 
O    -1.4854286   -0.1445915   -0.4478202 
H    -2.3924405   -0.2408477   -0.7475386 
24
name=" H3OpH2O6OHm " energy_kcal_mol=29.605
O    -1.2924523    1.9431423    1.2226497 
O     0.0000000    0.0000000    2.1910180 
O     2.3290367    0.1477254    1.2226497 
O    -1.0365844   -2.0908677    1.2226497 
O    -0.1173738   -2.3666396   -1.1811466 
O     0.0000000    0.0000000   -2.1281500 
O     2.1082569    1.0816711   -1.1811466 
O    -1.9908831    1.2849685   -1.1811466 
H    -1.6121332    1.7108041    0.2902261 
H    -2.0329921    2.3268088    1.6977145 
H    -2.7471836    0.6969876   -1.2446979 
H    -0.9985795   -2.9240272    1.6977145 
H    -0.6755332   -2.2515503    0.2902261 
H    -1.2036468    0.7746315   -1.6091000 
H    -0.5575433    0.7906310    1.8329416 
H    -0.4059349   -0.8781622    1.8329416 
H     1.9772008    2.0306370   -1.2446979 
H    -0.0690272   -1.4297045   -1.6091000 
H     0.9634782    0.0875312    1.8329416 
H     0.7699828   -2.7276246   -1.2446979 
H     0.0000000    0.0000000   -3.0886303 
H     1.2726740    0.6550729   -1.6091000 
H     3.0315716    0.5972183    1.6977145 
H     2.2876664    0.5407463    0.2902261 
